REMARK  Name = =
REMARK                            x       y       z     vdW  Elec       q    Type
REMARK                         _______ _______ _______ _____ _____    ______ ____
ROOT
ATOM      1  C   LIG    1       -0.395   1.082  -1.504  0.00  0.00    +0.093 C 
ATOM      2  C   LIG    1       -1.861   0.854  -1.081  0.00  0.00    +0.055 C 
ATOM      3  C   LIG    1       -2.350  -0.568  -1.387  0.00  0.00    +0.088 C 
ATOM      4  N   LIG    1       -1.465  -1.627  -0.876  0.00  0.00    -0.298 NA
ATOM      5  C   LIG    1       -0.109  -1.451  -1.410  0.00  0.00    +0.088 C 
ATOM      6  C   LIG    1        0.514  -0.092  -1.089  0.00  0.00    +0.055 C 
ENDROOT
BRANCH   1   7
ATOM      7  C   LIG    1        0.133   2.403  -0.923  0.00  0.00    -0.016 A 
ATOM      8  C   LIG    1        0.257   2.586   0.469  0.00  0.00    +0.008 A 
ATOM      9  C   LIG    1        0.730   3.790   1.004  0.00  0.00    +0.020 A 
ATOM     10  C   LIG    1        1.084   4.833   0.154  0.00  0.00    +0.041 A 
ATOM     11 CL   LIG    1        1.655   6.317   0.811  0.00  0.00    -0.084 Cl
ATOM     12  C   LIG    1        0.975   4.680  -1.222  0.00  0.00    +0.020 A 
ATOM     13  C   LIG    1        0.504   3.475  -1.755  0.00  0.00    +0.008 A 
ENDBRANCH   1   7
BRANCH   1  14
ATOM     14  O   LIG    1       -0.363   1.178  -2.939  0.00  0.00    -0.384 OA
ATOM     15  H   LIG    1       -0.706   0.353  -3.317  0.00  0.00    +0.211 HD
ENDBRANCH   1  14
BRANCH   4  16
ATOM     16  C   LIG    1       -1.538  -1.719   0.594  0.00  0.00    +0.119 C 
BRANCH  16  17
ATOM     17  C   LIG    1       -0.692  -2.818   1.203  0.00  0.00    -0.032 A 
ATOM     18  C   LIG    1        0.314  -2.501   2.130  0.00  0.00    +0.025 A 
ATOM     19  C   LIG    1        1.097  -3.508   2.691  0.00  0.00    +0.041 A 
ATOM     20 CL   LIG    1        2.333  -3.100   3.816  0.00  0.00    -0.084 Cl
ATOM     21  C   LIG    1        0.887  -4.842   2.345  0.00  0.00    +0.020 A 
ATOM     22  C   LIG    1       -0.114  -5.168   1.432  0.00  0.00    +0.002 A 
ATOM     23  C   LIG    1       -0.901  -4.163   0.864  0.00  0.00    +0.005 A 
ENDBRANCH  16  17
ENDBRANCH   4  16
TORSDOF 4
